 170
 MPMP-8H-PYRENE-MPMP-8H
 C                 -3.53481103   -2.24057873    0.29445093
 C                 -2.82156155   -1.03311670    0.24510869
 C                 -1.42483447   -1.00718379    0.12787932
 C                 -0.70962735   -2.24045593    0.06185959
 C                 -1.42603725   -3.47388427    0.11501621
 C                 -2.82271768   -3.44810005    0.22979307
 C                 -0.67857786    0.22168109    0.06467912
 C                  0.70956463   -2.24030659   -0.05464822
 C                  1.42472012   -1.00686485   -0.11802525
 C                  0.67844559    0.22183272   -0.05184056
 C                  2.82139417   -1.03250437   -0.23592561
 H                  3.36299142   -0.09036990   -0.25907965
 C                  3.53463841   -2.23983179   -0.28846087
 C                  2.82263836   -3.44751900   -0.22600312
 C                  1.42600147   -3.47359037   -0.11071229
 C                  0.67881304   -4.70236264   -0.05351078
 C                 -0.67879734   -4.70250411    0.05524012
 H                 -1.22607811   -5.64116034    0.09815544
 H                  1.22612435   -5.64090374   -0.09850131
 H                 -1.22587900    1.16002648    0.11230587
 H                 -3.36318124   -0.09104187    0.27007064
 H                 -3.36107857   -4.38995143    0.29693275
 H                  1.22572147    1.16030012   -0.09730619
 H                  3.36098571   -4.38920830   -0.29550385
 C                  5.01484706   -2.23584218   -0.40357242
 C                  5.80381768   -3.15533908    0.25394349
 C                  5.67146436   -1.29096545   -1.22745441
 C                  7.21637141   -3.08770119    0.19475712
 H                  5.35465272   -3.91965695    0.88237719
 C                  7.05270938   -1.21370685   -1.38881487
 H                  5.05198576   -0.60983877   -1.79909388
 C                  7.88892066   -2.06487107   -0.56343181
 C                  7.97708456   -4.01574357    0.94618965
 C                  7.48266563   -0.31981081   -2.51389707
 C                  9.32189381   -1.94221194   -0.41321456
 C                  9.34453291   -3.96526255    0.94238765
 H                  7.45555318   -4.76485498    1.53583951
 C                  8.58490051    0.57229019   -2.46913159
 C                  6.67474262   -0.28369526   -3.65976942
 C                 10.06065975   -2.94332092    0.26260989
 C                  9.98942165   -0.68940132   -0.72749499
 H                  9.90254445   -4.68991192    1.52522603
 C                  9.58998009    0.43560979   -1.46565795
 C                  8.77716907    1.57080800   -3.46796137
 C                  6.87334268    0.66251336   -4.66568754
 H                  5.87307465   -1.00637174   -3.76523141
 C                 11.56566689   -3.11730291    0.32554212
 C                 11.19178004   -0.27542426   -0.10970534
 N                 10.50807642    1.48623073   -1.27828953
 C                  9.90650762    2.51693950   -3.35666942
 C                  7.88670166    1.60434959   -4.55228876
 H                  6.22110236    0.66985839   -5.53430760
 C                 12.56000063   -2.14868095    0.63368917
 C                 12.02647724   -4.43194337    0.15625025
 N                 12.24877371   -0.78748080    0.60057748
 C                 11.48127392    1.02771023   -0.42537939
 C                 10.72358343    2.51345335   -2.20010546
 C                 10.22463369    3.42819136   -4.37957607
 H                  7.99072675    2.35652277   -5.32569974
 C                 13.91013822   -2.48964809    0.89139109
 C                 13.35979341   -4.79229937    0.35689418
 H                 11.31485344   -5.19416865   -0.14277001
 C                 13.19657149    0.24450110    0.73809283
 C                 12.73281420    1.41073267    0.10973105
 C                 11.78437818    3.43886403   -2.00252640
 C                 11.31226671    4.27699998   -4.26047925
 H                  9.63797662    3.44901274   -5.29036686
 C                 14.28296936   -3.83836056    0.75089804
 C                 14.87906208   -1.44135796    1.27250385
 H                 13.66801672   -5.82346412    0.21181175
 C                 14.48518937   -0.07171955    1.26198046
 C                 13.20825720    2.78520138    0.11936984
 C                 12.06952047    4.28104471   -3.08797357
 C                 12.57643470    3.71580276   -0.73933829
 H                 11.57309749    4.94762566   -5.07386697
 H                 15.31100073   -4.13744918    0.91739479
 C                 16.20212099   -1.74836309    1.62653848
 C                 15.37000527    0.95889541    1.67150719
 C                 14.12145251    3.23734515    1.14808462
 H                 12.91171490    4.96011178   -3.00765431
 C                 12.71178803    5.10067672   -0.45118008
 C                 17.10970950   -0.73883858    1.91624365
 H                 16.53749215   -2.77849440    1.66011556
 C                 16.69749132    0.59388259    1.93939250
 C                 14.97349609    2.37809572    1.94884154
 C                 14.16563547    4.65005493    1.43063553
 C                 13.44061925    5.55161450    0.61533674
 H                 12.16858515    5.81360889   -1.06186201
 H                 18.14314266   -0.98714098    2.14080049
 H                 17.42056563    1.36703837    2.17496766
 C                 15.60602150    2.93389315    3.06213428
 C                 14.88769577    5.15675158    2.54033417
 H                 13.46592218    6.61102365    0.85625234
 C                 15.55938595    4.30302494    3.37650646
 H                 16.17321013    2.27774194    3.71260415
 H                 14.87304751    6.22834759    2.72209823
 H                 16.07718700    4.67204295    4.25745328
 C                 -5.01514075   -2.23690817    0.40799718
 C                 -5.80318637   -3.15535722   -0.25210346
 C                 -5.67292330   -1.29341262    1.23253607
 C                 -7.21581324   -3.08784221   -0.19479496
 H                 -5.35313091   -3.91858901   -0.88122293
 C                 -7.05440592   -1.21638256    1.39201159
 H                 -5.05424884   -0.61323774    1.80617764
 C                 -7.88943809   -2.06620469    0.56402322
 C                 -7.97544712   -4.01462986   -0.94886738
 C                 -7.48601521   -0.32425788    2.51787927
 C                 -9.32217105   -1.94320308    0.41181618
 C                 -9.34289612   -3.96407002   -0.94705913
 H                 -7.45307176   -4.76280285   -1.53896274
 C                 -8.58817617    0.56793449    2.47289170
 C                 -6.67981960   -0.28998388    3.66501981
 C                -10.05998214   -2.94315805   -0.26674781
 C                 -9.99007195   -0.69084103    0.72705684
 H                 -9.90006679   -4.68774697   -1.53190616
 C                 -9.59170584    0.43294220    1.46765076
 C                 -8.78196559    1.56482187    3.47305790
 C                 -6.87993888    0.65459927    4.67216900
 H                 -5.87831372   -1.01283214    3.77053507
 C                -11.56490170   -3.11689894   -0.33230734
 C                -11.19141247   -0.27576075    0.10802608
 N                -10.50941444    1.48395093    1.28053695
 C                 -9.91114517    2.51112618    3.36161116
 C                 -7.89313979    1.59660676    4.55877999
 H                 -6.22899795    0.66054600    5.54177403
 C                -12.55863625   -2.14769322   -0.64052541
 C                -12.02612180   -4.43174990   -0.16577914
 N                -12.24731445   -0.78658246   -0.60476459
 C                -11.48128704    1.02689084    0.42533003
 C                -10.72639119    2.50962109    2.20375359
 C                -10.23090063    3.42060020    4.38558836
 H                 -7.99833049    2.34754443    5.33323353
 C                -13.90839633   -2.48810507   -0.90092618
 C                -13.35917025   -4.79162961   -0.36905359
 H                -11.31505384   -5.19452251    0.13317664
 C                -13.19479451    0.24570256   -0.74212088
 C                -12.73195000    1.41087799   -0.11114398
 C                -11.78689082    3.43535338    2.00607939
 C                -11.31837511    4.26957903    4.26623688
 H                 -9.64568869    3.43986576    5.29734420
 C                -14.28161271   -3.83698419   -0.76307214
 C                -14.87656336   -1.43912072   -1.28205991
 H                -13.66774863   -5.82297337   -0.22601065
 C                -14.48256703   -0.06954239   -1.26866577
 C                -13.20731326    2.78538398   -0.11924486
 C                -12.07377008    4.27563695    3.09254003
 C                -12.57691625    3.71449328    0.74210736
 H                -11.58052450    4.93878572    5.08036978
 H                -15.30941865   -4.13568552   -0.93163920
 C                -16.19902572   -1.74542420   -1.63892309
 C                -15.36655784    0.96181291   -1.67810103
 C                -14.11876529    3.23929324   -1.14872734
 H                -12.91586555    4.95481109    3.01210185
 C                -12.71182968    5.09986369    0.45613146
 C                -17.10600563   -0.73534124   -1.92858608
 H                -16.53440874   -2.77547556   -1.67479034
 C                -16.69361441    0.59737413   -1.94887698
 C                -14.96943301    2.38142373   -1.95242261
 C                -14.16247263    4.65248399   -1.42893432
 C                -13.43888746    5.55263994   -0.61082070
 H                -12.16964610    5.81175909    1.06892440
 H                -18.13906694   -0.98317652   -2.15535957
 H                -17.41619753    1.37098256   -2.18447013
 C                -15.59994257    2.93910508   -3.06591438
 C                -14.88257084    5.16107005   -2.53904939
 H                -13.46380923    6.61246666   -0.84993303
 C                -15.55272525    4.30876410   -3.37789535
 H                -16.16598607    2.28405774   -3.71849356
 H                -14.86760359    6.23297450   -2.71896136
 H                -16.06893131    4.67927099   -4.25915265






